data/ieee118/ieee118.raw
 0,    100.00, 33, 0, 0, 60.00       / February 20, 2021 11:22:07; Simulator Version 21; BuildDate 2020_11_20
 08/25/93 UW ARCHIVE           100.0  1961 W IEEE 118 BUS TE

    1,'RIVERSDE    ', 138.0000,1,   1,   1,   1,0.97288001,   5.617100, 1.10000, 0.90000, 1.10000, 0.90000
    2,'POKAGON     ', 138.0000,1,   1,   1,   1,0.96955001,   6.274300, 1.10000, 0.90000, 1.10000, 0.90000
    3,'HICKRYCK    ', 138.0000,1,   1,   1,   1,0.97086000,   6.803600, 1.10000, 0.90000, 1.10000, 0.90000
    4,'NWCARLSL    ', 138.0000,1,   1,   1,   1,0.98724997,  10.974600, 1.10000, 0.90000, 1.10000, 0.90000
    5,'OLIVE       ', 138.0000,1,   1,   1,   1,0.98142999,  11.871900, 1.10000, 0.90000, 1.10000, 0.90000
    6,'KANKAKEE    ', 138.0000,1,   1,   1,   1,0.97298998,   8.889000, 1.10000, 0.90000, 1.10000, 0.90000
    7,'JACKSNRD    ', 138.0000,1,   1,   1,   1,0.97288001,   8.430500, 1.10000, 0.90000, 1.10000, 0.90000
    8,'OLIVE       ', 345.0000,1,   1,   1,   1,0.97947001,  16.325400, 1.10000, 0.90000, 1.10000, 0.90000
    9,'BEQUINE     ', 345.0000,1,   1,   1,   1,0.99422002,  29.062800, 1.10000, 0.90000, 1.10000, 0.90000
   10,'BREED       ', 345.0000,1,   1,   1,   1,1.03601003,  44.060901, 1.10000, 0.90000, 1.10000, 0.90000
   11,'SOUTHBND    ', 138.0000,1,   1,   1,   1,0.97301000,   8.201000, 1.10000, 0.90000, 1.10000, 0.90000
   12,'TWINBRCH    ', 138.0000,1,   1,   1,   1,0.97605997,   7.694600, 1.10000, 0.90000, 1.10000, 0.90000
   13,'CONCORD     ', 138.0000,1,   1,   1,   1,0.97600001,   6.255600, 1.10000, 0.90000, 1.10000, 0.90000
   14,'GOSHENJT    ', 138.0000,1,   1,   1,   1,0.97460997,   6.802700, 1.10000, 0.90000, 1.10000, 0.90000
   15,'FTWAYNE     ', 138.0000,1,   1,   1,   1,0.97060001,   6.509000, 1.10000, 0.90000, 1.10000, 0.90000
   16,'N. E.       ', 138.0000,1,   1,   1,   1,0.98637003,   8.855400, 1.10000, 0.90000, 1.10000, 0.90000
   17,'SORENSON    ', 138.0000,1,   1,   1,   1,0.99387002,   9.735500, 1.10000, 0.90000, 1.10000, 0.90000
   18,'MCKINLEY    ', 138.0000,1,   1,   1,   1,0.96878999,   7.478700, 1.10000, 0.90000, 1.10000, 0.90000
   19,'LINCOLN     ', 138.0000,1,   1,   1,   1,0.96467000,   6.747200, 1.10000, 0.90000, 1.10000, 0.90000
   20,'ADAMS       ', 138.0000,1,   1,   1,   1,0.96748000,   7.106200, 1.10000, 0.90000, 1.10000, 0.90000
   21,'JAY         ', 138.0000,1,   1,   1,   1,0.97319001,   8.356600, 1.10000, 0.90000, 1.10000, 0.90000
   22,'RANDOLPH    ', 138.0000,1,   1,   1,   1,0.97722000,  10.691100, 1.10000, 0.90000, 1.10000, 0.90000
   23,'COLLCRNR    ', 138.0000,1,   1,   1,   1,0.99738002,  16.187400, 1.10000, 0.90000, 1.10000, 0.90000
   24,'TRENTON     ', 138.0000,1,   1,   1,   1,1.00425005,  15.907200, 1.10000, 0.90000, 1.10000, 0.90000
   25,'TANNRSCK    ', 138.0000,1,   1,   1,   1,1.03613997,  26.057500, 1.10000, 0.90000, 1.10000, 0.90000
   26,'TANNRSCK    ', 345.0000,1,   1,   1,   1,1.04136002,  26.563099, 1.10000, 0.90000, 1.10000, 0.90000
   27,'MADISON     ', 138.0000,1,   1,   1,   1,0.97386003,   5.173500, 1.10000, 0.90000, 1.10000, 0.90000
   28,'MULLIN      ', 138.0000,1,   1,   1,   1,0.96609002,   4.072500, 1.10000, 0.90000, 1.10000, 0.90000
   29,'GRANT       ', 138.0000,1,   1,   1,   1,0.96581000,   3.867100, 1.10000, 0.90000, 1.10000, 0.90000
   30,'SORENSON    ', 345.0000,1,   1,   1,   1,0.97920001,  13.377300, 1.10000, 0.90000, 1.10000, 0.90000
   31,'DEERCRK     ', 138.0000,1,   1,   1,   1,0.96412998,   4.340200, 1.10000, 0.90000, 1.10000, 0.90000
   32,'DELAWARE    ', 138.0000,1,   1,   1,   1,0.96341997,   4.509600, 1.10000, 0.90000, 1.10000, 0.90000
   33,'HAVILAND    ', 138.0000,1,   1,   1,   1,0.97608000,   7.374800, 1.10000, 0.90000, 1.10000, 0.90000
   34,'ROCKHILL    ', 138.0000,1,   1,   1,   1,0.99160999,   9.483600, 1.10000, 0.90000, 1.10000, 0.90000
   35,'WESTLIMA    ', 138.0000,1,   1,   1,   1,0.98988998,   9.126700, 1.10000, 0.90000, 1.10000, 0.90000
   36,'STERLING    ', 138.0000,1,   1,   1,   1,0.98943001,   9.084100, 1.10000, 0.90000, 1.10000, 0.90000
   37,'EASTLIMA    ', 138.0000,1,   1,   1,   1,0.99943000,  10.323200, 1.10000, 0.90000, 1.10000, 0.90000
   38,'EASTLIMA    ', 345.0000,1,   1,   1,   1,0.96560001,  13.207100, 1.10000, 0.90000, 1.10000, 0.90000
   39,'NWLIBRTY    ', 138.0000,1,   1,   1,   1,0.98658001,   8.676600, 1.10000, 0.90000, 1.10000, 0.90000
   40,'WEST END    ', 138.0000,1,   1,   1,   1,0.98139000,   9.018100, 1.10000, 0.90000, 1.10000, 0.90000
   41,'S.TIFFIN    ', 138.0000,1,   1,   1,   1,0.96346998,   8.542100, 1.10000, 0.90000, 1.10000, 0.90000
   42,'HOWARD      ', 138.0000,1,   1,   1,   1,0.97103000,  11.465000, 1.10000, 0.90000, 1.10000, 0.90000
   43,'S.KENTON    ', 138.0000,1,   1,   1,   1,0.98048002,   9.554200, 1.10000, 0.90000, 1.10000, 0.90000
   44,'WMVERNON    ', 138.0000,1,   1,   1,   1,0.96218002,  12.599100, 1.10000, 0.90000, 1.10000, 0.90000
   45,'N.NEWARK    ', 138.0000,1,   1,   1,   1,0.96341002,  14.665200, 1.10000, 0.90000, 1.10000, 0.90000
   46,'W.LANCST    ', 138.0000,1,   1,   1,   1,0.97307003,  17.783301, 1.10000, 0.90000, 1.10000, 0.90000
   47,'CROOKSVL    ', 138.0000,1,   1,   1,   1,0.99330002,  20.110399, 1.10000, 0.90000, 1.10000, 0.90000
   48,'ZANESVLL    ', 138.0000,1,   1,   1,   1,0.98368001,  19.726800, 1.10000, 0.90000, 1.10000, 0.90000
   49,'PHILO       ', 138.0000,1,   1,   1,   1,0.99329001,  20.839300, 1.10000, 0.90000, 1.10000, 0.90000
   50,'WCAMBRDG    ', 138.0000,1,   1,   1,   1,0.98286003,  18.490200, 1.10000, 0.90000, 1.10000, 0.90000
   51,'NEWCMRST    ', 138.0000,1,   1,   1,   1,0.97325999,  16.614000, 1.10000, 0.90000, 1.10000, 0.90000
   52,'SCOSHOCT    ', 138.0000,1,   1,   1,   1,0.97088999,  15.811400, 1.10000, 0.90000, 1.10000, 0.90000
   53,'WOOSTER     ', 138.0000,1,   1,   1,   1,0.97434998,  15.461800, 1.10000, 0.90000, 1.10000, 0.90000
   54,'TORREY      ', 138.0000,1,   1,   1,   1,0.97790003,  17.040501, 1.10000, 0.90000, 1.10000, 0.90000
   55,'WAGENHLS    ', 138.0000,1,   1,   1,   1,0.96996999,  16.236900, 1.10000, 0.90000, 1.10000, 0.90000
   56,'SUNNYSDE    ', 138.0000,1,   1,   1,   1,0.97454000,  16.110000, 1.10000, 0.90000, 1.10000, 0.90000
   57,'WNWPHIL1    ', 138.0000,1,   1,   1,   1,0.97517002,  16.363299, 1.10000, 0.90000, 1.10000, 0.90000
   58,'WNWPHIL2    ', 138.0000,1,   1,   1,   1,0.97329998,  16.096000, 1.10000, 0.90000, 1.10000, 0.90000
   59,'TIDD        ', 138.0000,1,   1,   1,   1,0.99550998,  20.764299, 1.10000, 0.90000, 1.10000, 0.90000
   60,'SWKAMMER    ', 138.0000,1,   1,   1,   1,1.01252997,  23.873500, 1.10000, 0.90000, 1.10000, 0.90000
   61,'W.KAMMER    ', 138.0000,1,   1,   1,   1,1.02356005,  26.045400, 1.10000, 0.90000, 1.10000, 0.90000
   62,'NATRIUM     ', 138.0000,1,   1,   1,   1,1.01192999,  24.219900, 1.10000, 0.90000, 1.10000, 0.90000
   63,'TIDD        ', 345.0000,1,   1,   1,   1,0.99045998,  24.242600, 1.10000, 0.90000, 1.10000, 0.90000
   64,'KAMMER      ', 345.0000,1,   1,   1,   1,1.01063001,  26.182700, 1.10000, 0.90000, 1.10000, 0.90000
   65,'MUSKNGUM    ', 345.0000,1,   1,   1,   1,1.02753997,  29.188301, 1.10000, 0.90000, 1.10000, 0.90000
   66,'MUSKNGUM    ', 138.0000,1,   1,   1,   1,1.00917995,  28.666499, 1.10000, 0.90000, 1.10000, 0.90000
   67,'SUMMERFL    ', 138.0000,1,   1,   1,   1,1.00406003,  25.696200, 1.10000, 0.90000, 1.10000, 0.90000
   68,'SPORN       ', 345.0000,1,   1,   1,   1,1.00107002,  29.638199, 1.10000, 0.90000, 1.10000, 0.90000
   69,'SPORN       ', 138.0000,1,   1,   1,   1,1.04657996,  27.475300, 1.10000, 0.90000, 1.10000, 0.90000
   70,'PORTSMTH    ', 138.0000,1,   1,   1,   1,0.98487997,  15.548500, 1.10000, 0.90000, 1.10000, 0.90000
   71,'NPORTSMT    ', 138.0000,1,   1,   1,   1,0.99414998,  15.569500, 1.10000, 0.90000, 1.10000, 0.90000
   72,'HILLSBRO    ', 138.0000,1,   1,   1,   1,1.00285006,  15.672001, 1.10000, 0.90000, 1.10000, 0.90000
   73,'SARGENTS    ', 138.0000,1,   1,   1,   1,0.99295998,  15.565501, 1.10000, 0.90000, 1.10000, 0.90000
   74,'BELLEFNT    ', 138.0000,1,   1,   1,   1,0.97486001,  14.940800, 1.10000, 0.90000, 1.10000, 0.90000
   75,'STHPOINT    ', 138.0000,1,   1,   1,   1,0.98141998,  16.499399, 1.10000, 0.90000, 1.10000, 0.90000
   76,'DARRAH      ', 138.0000,1,   1,   1,   1,0.98745000,  16.428301, 1.10000, 0.90000, 1.10000, 0.90000
   77,'TURNER      ', 138.0000,1,   1,   1,   1,1.00430000,  24.167501, 1.10000, 0.90000, 1.10000, 0.90000
   78,'CHEMICAL    ', 138.0000,1,   1,   1,   1,0.98102999,  24.647001, 1.10000, 0.90000, 1.10000, 0.90000
   79,'CAPITLHL    ', 138.0000,1,   1,   1,   1,0.98113000,  26.042301, 1.10000, 0.90000, 1.10000, 0.90000
   80,'CABINCRK    ', 138.0000,1,   1,   1,   1,1.01432002,  30.884101, 1.10000, 0.90000, 1.10000, 0.90000
   81,'KANAWHA     ', 345.0000,1,   1,   1,   1,0.98194999,  30.248599, 1.10000, 0.90000, 1.10000, 0.90000
   82,'LOGAN       ', 138.0000,1,   1,   1,   1,0.97454000,  32.149400, 1.10000, 0.90000, 1.10000, 0.90000
   83,'SPRIGG      ', 138.0000,1,   1,   1,   1,0.97227001,  36.388301, 1.10000, 0.90000, 1.10000, 0.90000
   84,'BETSYLNE    ', 138.0000,1,   1,   1,   1,0.97250998,  38.698400, 1.10000, 0.90000, 1.10000, 0.90000
   85,'BEAVERCK    ', 138.0000,1,   1,   1,   1,0.97991002,  41.584698, 1.10000, 0.90000, 1.10000, 0.90000
   86,'HAZARD      ', 138.0000,1,   1,   1,   1,0.97631001,  41.281800, 1.10000, 0.90000, 1.10000, 0.90000
   87,'PINEVLLE    ', 138.0000,1,   1,   1,   1,0.98416001,  42.531199, 1.10000, 0.90000, 1.10000, 0.90000
   88,'FREMONT     ', 138.0000,1,   1,   1,   1,1.01436996,  48.124601, 1.10000, 0.90000, 1.10000, 0.90000
   89,'CLINCHRV    ', 138.0000,1,   1,   1,   1,1.02591002,  49.877200, 1.10000, 0.90000, 1.10000, 0.90000
   90,'HOLSTON     ', 138.0000,1,   1,   1,   1,1.01433003,  48.426400, 1.10000, 0.90000, 1.10000, 0.90000
   91,'HOLSTONT    ', 138.0000,1,   1,   1,   1,1.01122999,  47.353900, 1.10000, 0.90000, 1.10000, 0.90000
   92,'SALTVLLE    ', 138.0000,1,   1,   1,   1,1.00564003,  45.567300, 1.10000, 0.90000, 1.10000, 0.90000
   93,'TAZEWELL    ', 138.0000,1,   1,   1,   1,0.99116999,  41.434800, 1.10000, 0.90000, 1.10000, 0.90000
   94,'SWITCHBK    ', 138.0000,1,   1,   1,   1,0.98547000,  38.360299, 1.10000, 0.90000, 1.10000, 0.90000
   95,'CALDWELL    ', 138.0000,1,   1,   1,   1,0.97562999,  35.803298, 1.10000, 0.90000, 1.10000, 0.90000
   96,'BAILEYSV    ', 138.0000,1,   1,   1,   1,0.98029000,  33.963201, 1.10000, 0.90000, 1.10000, 0.90000
   97,'SUNDIAL     ', 138.0000,1,   1,   1,   1,0.99194998,  32.037501, 1.10000, 0.90000, 1.10000, 0.90000
   98,'BRADLEY     ', 138.0000,1,   1,   1,   1,0.99602002,  32.457400, 1.10000, 0.90000, 1.10000, 0.90000
   99,'HINTON      ', 138.0000,1,   1,   1,   1,1.00329995,  36.362100, 1.10000, 0.90000, 1.10000, 0.90000
  100,'GLEN LYN    ', 138.0000,1,   1,   1,   1,0.99093002,  38.873301, 1.10000, 0.90000, 1.10000, 0.90000
  101,'WYTHE       ', 138.0000,1,   1,   1,   1,0.98390001,  39.367100, 1.10000, 0.90000, 1.10000, 0.90000
  102,'SMYTHE      ', 138.0000,1,   1,   1,   1,0.99137002,  41.824001, 1.10000, 0.90000, 1.10000, 0.90000
  103,'CLAYTOR     ', 138.0000,1,   1,   1,   1,0.98035997,  38.289101, 1.10000, 0.90000, 1.10000, 0.90000
  104,'HANCOCK     ', 138.0000,1,   1,   1,   1,0.96842003,  36.585799, 1.10000, 0.90000, 1.10000, 0.90000
  105,'ROANOKE     ', 138.0000,1,   1,   1,   1,0.97459000,  36.692200, 1.10000, 0.90000, 1.10000, 0.90000
  106,'CLOVERDL    ', 138.0000,1,   1,   1,   1,0.98277003,  37.534202, 1.10000, 0.90000, 1.10000, 0.90000
  107,'REUSENS     ', 138.0000,1,   1,   1,   1,0.97806001,  36.612700, 1.10000, 0.90000, 1.10000, 0.90000
  108,'BLAINE      ', 138.0000,1,   1,   1,   1,0.97166997,  36.460001, 1.10000, 0.90000, 1.10000, 0.90000
  109,'FRANKLIN    ', 138.0000,1,   1,   1,   1,0.97007000,  36.384800, 1.10000, 0.90000, 1.10000, 0.90000
  110,'FIELDALE    ', 138.0000,1,   1,   1,   1,0.96899003,  36.671699, 1.10000, 0.90000, 1.10000, 0.90000
  111,'DANRIVER    ', 138.0000,1,   1,   1,   1,0.99295998,  40.084799, 1.10000, 0.90000, 1.10000, 0.90000
  112,'DANVILLE    ', 138.0000,1,   1,   1,   1,0.96218997,  34.957099, 1.10000, 0.90000, 1.10000, 0.90000
  113,'DEER CRK    ', 138.0000,1,   1,   1,   1,0.98576999,   7.639000, 1.10000, 0.90000, 1.10000, 0.90000
  114,'WMEDFORD    ', 138.0000,1,   1,   1,   1,0.96140999,   4.140300, 1.10000, 0.90000, 1.10000, 0.90000
  115,'MEDFORD     ', 138.0000,1,   1,   1,   1,0.96101999,   4.041000, 1.10000, 0.90000, 1.10000, 0.90000
  116,'KYGERCRK    ', 345.0000,1,   1,   1,   1,1.00229001,  30.589801, 1.10000, 0.90000, 1.10000, 0.90000
  117,'COREY       ', 138.0000,1,   1,   1,   1,0.97582000,   7.620100, 1.10000, 0.90000, 1.10000, 0.90000
  118,'WHUNTNGD    ', 138.0000,1,   1,   1,   1,0.98180002,  15.820701, 1.10000, 0.90000, 1.10000, 0.90000
10011,'RIVERSDE_1  ',  10.5000,2,   1,   1,   1,0.99048001, -24.408900, 1.10000, 0.90000, 1.10000, 0.90000
10041,'NWCARLSL_4  ',  10.5000,2,   1,   1,   1,1.04999995, -19.116400, 1.10000, 0.90000, 1.10000, 0.90000
10061,'KANKAKEE_6  ',  10.5000,2,   1,   1,   1,0.99000001, -21.136101, 1.10000, 0.90000, 1.10000, 0.90000
10081,'OLIVE_8     ',  10.5000,2,   1,   1,   1,1.01499999, -13.743200, 1.10000, 0.90000, 1.10000, 0.90000
10101,'BREED_10_1  ',  20.0000,2,   1,   1,   1,1.04999995,  18.489300, 1.10000, 0.90000, 1.10000, 0.90000
10102,'BREED_10_2  ',  20.0000,2,   1,   1,   1,1.04999995,  18.489300, 1.10000, 0.90000, 1.10000, 0.90000
10121,'TWINBRCH_12_',  10.5000,2,   1,   1,   1,1.00952005, -17.733000, 1.10000, 0.90000, 1.10000, 0.90000
10122,'TWINBRCH_12_',  10.5000,2,   1,   1,   1,1.00952005, -17.733000, 1.10000, 0.90000, 1.10000, 0.90000
10123,'TWINBRCH_12_',  10.5000,2,   1,   1,   1,1.00952005, -17.733000, 1.10000, 0.90000, 1.10000, 0.90000
10124,'TWINBRCH_12_',  10.5000,2,   1,   1,   1,1.00952005, -17.733000, 1.10000, 0.90000, 1.10000, 0.90000
10151,'FTWAYNE_15  ',  10.5000,2,   1,   1,   1,0.98000002, -23.504901, 1.10000, 0.90000, 1.10000, 0.90000
10181,'MCKINLEY_18 ',  10.5000,2,   1,   1,   1,0.97299999, -22.527501, 1.10000, 0.90000, 1.10000, 0.90000
10191,'LINCOLN_19  ',  10.5000,2,   1,   1,   1,0.96399999, -23.251800, 1.10000, 0.90000, 1.10000, 0.90000
10241,'TRENTON_24_1',  10.5000,2,   1,   1,   1,1.00476003, -14.093400, 1.10000, 0.90000, 1.10000, 0.90000
10251,'TRANNRSCK_25',  15.0000,2,   1,   1,   1,1.04999995,   0.519900, 1.10000, 0.90000, 1.10000, 0.90000
10261,'TANNRSCK_26_',  15.0000,2,   1,   1,   1,1.05332994,   0.987700, 1.10000, 0.90000, 1.10000, 0.90000
10262,'TANNRSCK_26_',  15.0000,2,   1,   1,   1,1.05332994,   0.987700, 1.10000, 0.90000, 1.10000, 0.90000
10271,'MADISON_27  ',  10.5000,2,   1,   1,   1,0.98000002, -24.833700, 1.10000, 0.90000, 1.10000, 0.90000
10311,'DEERCRK_31  ',  10.5000,2,   1,   1,   1,0.98095000, -20.410900, 1.10000, 0.90000, 1.10000, 0.90000
10321,'DELAWARE_32 ',  10.5000,2,   1,   1,   1,0.97143000, -25.502301, 1.10000, 0.90000, 1.10000, 0.90000
10341,'ROCKHILL_34 ',  10.5000,2,   1,   1,   1,1.00476003, -20.535399, 1.10000, 0.90000, 1.10000, 0.90000
10361,'STERLING_36 ',  10.5000,2,   1,   1,   1,1.00000000, -20.931200, 1.10000, 0.90000, 1.10000, 0.90000
10401,'WESTEND_40  ',  10.5000,2,   1,   1,   1,0.99048001, -20.995201, 1.10000, 0.90000, 1.10000, 0.90000
10421,'HOWARD_42   ',  10.5000,2,   1,   1,   1,1.00952005, -18.625900, 1.10000, 0.90000, 1.10000, 0.90000
10461,'WLANCST_46_1',  15.0000,2,   1,   1,   1,1.01332998,  -7.443100, 1.10000, 0.90000, 1.10000, 0.90000
10462,'WLANCST_46_2',  15.0000,2,   1,   1,   1,1.01332998,  -7.443100, 1.10000, 0.90000, 1.10000, 0.90000
10491,'PHILO_49_1  ',  15.0000,2,   1,   1,   1,1.04666996,  -5.322700, 1.10000, 0.90000, 1.10000, 0.90000
10541,'TORREY_PP_54',  15.0000,2,   1,   1,   1,1.00000000,  -9.015100, 1.10000, 0.90000, 1.10000, 0.90000
10542,'TORREY_PP_54',  15.0000,2,   1,   1,   1,1.00000000,  -9.015100, 1.10000, 0.90000, 1.10000, 0.90000
10543,'TORREY_PP_54',  15.0000,2,   1,   1,   1,1.00000000,  -8.897800, 1.10000, 0.90000, 1.10000, 0.90000
10551,'WAGENHLS_55 ',  10.5000,2,   1,   1,   1,0.97143000, -13.765300, 1.10000, 0.90000, 1.10000, 0.90000
10561,'SUNNYSDE_56 ',  10.5000,2,   1,   1,   1,1.00952005, -13.972300, 1.10000, 0.90000, 1.10000, 0.90000
10591,'TIDD_59_1   ',  15.0000,2,   1,   1,   1,1.03332996,  -4.685900, 1.10000, 0.90000, 1.10000, 0.90000
10592,'TIDD_59_2   ',  15.0000,2,   1,   1,   1,1.03332996,  -4.685900, 1.10000, 0.90000, 1.10000, 0.90000
10611,'KAMMER_61_1 ',  15.0000,2,   1,   1,   1,1.04666996,   0.476600, 1.10000, 0.90000, 1.10000, 0.90000
10621,'NATRIUM_62  ',  10.5000,2,   1,   1,   1,1.02857006,  -5.803700, 1.10000, 0.90000, 1.10000, 0.90000
10651,'MUSKNGUM_65_',  20.0000,2,   1,   1,   1,1.04499996,   3.705300, 1.10000, 0.90000, 1.10000, 0.90000
10652,'MUSKNGUM_65_',  20.0000,2,   1,   1,   1,1.04499996,   3.705300, 1.10000, 0.90000, 1.10000, 0.90000
10664,'MUSKNGUM_66_',  20.0000,2,   1,   1,   1,1.02499998,   3.173200, 1.10000, 0.90000, 1.10000, 0.90000
10665,'MUSKNGUM_66_',  20.0000,2,   1,   1,   1,1.02499998,   3.173200, 1.10000, 0.90000, 1.10000, 0.90000
10691,'SPORN_69_1  ',  20.0000,3,   1,   1,   1,1.04999995,   0.000000, 1.10000, 0.90000, 1.10000, 0.90000
10701,'PORTSMTH_70 ',  10.5000,2,   1,   1,   1,0.98400003, -14.450199, 1.10000, 0.90000, 1.10000, 0.90000
10721,'HILLSBRO_72 ',  10.5000,2,   1,   1,   1,1.00189996, -14.326699, 1.10000, 0.90000, 1.10000, 0.90000
10731,'SARGENTS_73 ',  10.5000,2,   1,   1,   1,0.99100000, -14.431700, 1.10000, 0.90000, 1.10000, 0.90000
10741,'BELLEFNT_74 ',  10.5000,2,   1,   1,   1,0.96947998, -15.051200, 1.10000, 0.90000, 1.10000, 0.90000
10761,'DARRAH_76   ',  10.5000,2,   1,   1,   1,1.00000000, -13.589900, 1.10000, 0.90000, 1.10000, 0.90000
10771,'TURNER_77   ',  10.5000,2,   1,   1,   1,1.04762006,  -5.894300, 1.10000, 0.90000, 1.10000, 0.90000
10801,'CABINCRK_80_',  20.0000,2,   1,   1,   1,1.03999996,   5.387900, 1.10000, 0.90000, 1.10000, 0.90000
10802,'CABINCRK_80_',  20.0000,2,   1,   1,   1,1.03999996,   5.387900, 1.10000, 0.90000, 1.10000, 0.90000
10851,'BEAVERCK_85 ',  10.5000,2,   1,   1,   1,0.98189998,  11.580300, 1.10000, 0.90000, 1.10000, 0.90000
10871,'PINEVLLE_PP_',  15.0000,2,   1,   1,   1,0.99000001,  16.440400, 1.10000, 0.90000, 1.10000, 0.90000
10891,'CLINCHRV_89_',  20.0000,2,   1,   1,   1,1.04999995,  24.327199, 1.10000, 0.90000, 1.10000, 0.90000
10892,'CLINCHRV_89_',  20.0000,2,   1,   1,   1,1.04999995,  24.327199, 1.10000, 0.90000, 1.10000, 0.90000
10893,'CLINCHRV_89_',  20.0000,2,   1,   1,   1,1.04999995,  24.327199, 1.10000, 0.90000, 1.10000, 0.90000
10901,'HOLSTON_90  ',  10.5000,2,   1,   1,   1,1.01905000,  18.419799, 1.10000, 0.90000, 1.10000, 0.90000
10911,'HOLSTONT_91 ',  10.5000,2,   1,   1,   1,1.01428998,  17.347000, 1.10000, 0.90000, 1.10000, 0.90000
10921,'SALTVLLE_92 ',  10.5000,2,   1,   1,   1,1.00571001,  15.567200, 1.10000, 0.90000, 1.10000, 0.90000
10991,'HINTON_99   ',  10.5000,2,   1,   1,   1,1.00999999,   6.352500, 1.10000, 0.90000, 1.10000, 0.90000
11001,'GLENLYN_100_',  15.0000,2,   1,   1,   1,1.01699996,  13.671800, 1.10000, 0.90000, 1.10000, 0.90000
11002,'GLENLYN_100_',  15.0000,2,   1,   1,   1,1.01699996,  13.581200, 1.10000, 0.90000, 1.10000, 0.90000
11031,'CLAYTOR_103 ',  10.5000,2,   1,   1,   1,1.00000000,  12.934900, 1.10000, 0.90000, 1.10000, 0.90000
11041,'HANCOCK_104 ',  10.5000,2,   1,   1,   1,0.97100002,   6.582000, 1.10000, 0.90000, 1.10000, 0.90000
11051,'ROANOKE_105 ',  10.5000,2,   1,   1,   1,0.97048002,   6.698300, 1.10000, 0.90000, 1.10000, 0.90000
11071,'REUSENS_107 ',  10.5000,2,   1,   1,   1,0.98095000,   6.604200, 1.10000, 0.90000, 1.10000, 0.90000
11101,'FIELDALE_110',  10.5000,2,   1,   1,   1,0.97299999,   6.665700, 1.10000, 0.90000, 1.10000, 0.90000
11111,'DANRIVER_111',  15.0000,2,   1,   1,   1,1.01999998,  14.341900, 1.10000, 0.90000, 1.10000, 0.90000
11121,'DANVILLE_112',  10.5000,2,   1,   1,   1,0.98095000,   4.882200, 1.10000, 0.90000, 1.10000, 0.90000
11131,'DEERCRK2_113',  10.5000,2,   1,   1,   1,1.00952005, -22.453400, 1.10000, 0.90000, 1.10000, 0.90000
11161,'KYGERCRK_116',  10.5000,2,   1,   1,   1,1.00500000,   5.347100, 1.10000, 0.90000, 1.10000, 0.90000
20011,'RIVERSDE    ',  25.0000,1,   1,   1,   1,0.96709001, -26.912499, 1.10000, 0.90000, 1.10000, 0.90000
20021,'POKAGON     ',  25.0000,1,   1,   1,   1,0.94507998, -26.583800, 1.10000, 0.90000, 1.10000, 0.90000
20031,'HICKRYCK    ',  25.0000,1,   1,   1,   1,0.96116000, -25.138600, 1.10000, 0.90000, 1.10000, 0.90000
20041,'NWCARLSL    ',  25.0000,1,   1,   1,   1,0.95362002, -23.206801, 1.10000, 0.90000, 1.10000, 0.90000
20061,'KANKAKEE    ',  25.0000,1,   1,   1,   1,0.95240003, -23.708300, 1.10000, 0.90000, 1.10000, 0.90000
20071,'JACKSNRD    ',  25.0000,1,   1,   1,   1,0.96557999, -24.247800, 1.10000, 0.90000, 1.10000, 0.90000
20111,'SOUTHBND    ',  25.0000,1,   1,   1,   1,0.95030999, -25.312100, 1.10000, 0.90000, 1.10000, 0.90000
20121,'TWINBRCH    ',  25.0000,1,   1,   1,   1,0.96600002, -24.624399, 1.10000, 0.90000, 1.10000, 0.90000
20131,'CONCORD     ',  25.0000,1,   1,   1,   1,0.98066002, -25.413899, 1.10000, 0.90000, 1.10000, 0.90000
20141,'GOSHENJT    ',  25.0000,1,   1,   1,   1,0.97061002, -25.158899, 1.10000, 0.90000, 1.10000, 0.90000
20151,'FTWAYNE     ',  25.0000,1,   1,   1,   1,0.94001001, -28.070100, 1.10000, 0.90000, 1.10000, 0.90000
20161,'N. E.       ',  25.0000,1,   1,   1,   1,0.95889997, -24.612100, 1.10000, 0.90000, 1.10000, 0.90000
20171,'SORENSON    ',  25.0000,1,   1,   1,   1,0.98576999, -21.742801, 1.10000, 0.90000, 1.10000, 0.90000
...
0 / END OF BUS DATA, BEGIN LOAD DATA
20011,'1 ',1,   1,   1,    52.020,    27.000,     0.000,     0.000,     0.000,     0.000,   1,1, 0
20021,'1 ',1,   1,   1,    20.400,     9.000,     0.000,     0.000,     0.000,     0.000,   1,1, 0
20031,'1 ',1,   1,   1,    39.780,     9.990,     0.000,     0.000,     0.000,     0.000,   1,1, 0
20041,'1 ',1,   1,   1,    30.600,    12.000,     0.000,     0.000,     0.000,     0.000,   1,1, 0
20061,'1 ',1,   1,   1,    53.040,    21.990,     0.000,     0.000,     0.000,     0.000,   1,1, 0
20071,'1 ',1,   1,   1,    19.380,     2.010,     0.000,     0.000,     0.000,     0.000,   1,1, 0
20111,'1 ',1,   1,   1,    71.400,    23.010,     0.000,     0.000,     0.000,     0.000,   1,1, 0
20121,'1 ',1,   1,   1,    47.940,     9.990,     0.000,     0.000,     0.000,     0.000,   1,1, 0
20131,'1 ',1,   1,   1,    34.680,    15.990,     0.000,     0.000,     0.000,     0.000,   1,1, 0
20141,'1 ',1,   1,   1,    14.280,     0.990,     0.000,     0.000,     0.000,     0.000,   1,1, 0
20151,'1 ',1,   1,   1,    91.800,    30.000,     0.000,     0.000,     0.000,     0.000,   1,1, 0
20161,'1 ',1,   1,   1,    25.500,     9.990,     0.000,     0.000,     0.000,     0.000,   1,1, 0
20171,'1 ',1,   1,   1,    11.220,     3.000,     0.000,     0.000,     0.000,     0.000,   1,1, 0
20181,'1 ',1,   1,   1,    61.200,    33.990,     0.000,     0.000,     0.000,     0.000,   1,1, 0
20191,'1 ',1,   1,   1,    45.900,    24.990,     0.000,     0.000,     0.000,     0.000,   1,1, 0
20201,'1 ',1,   1,   1,    18.360,     3.000,     0.000,     0.000,     0.000,     0.000,   1,1, 0
20211,'1 ',1,   1,   1,    14.280,     8.010,     0.000,     0.000,     0.000,     0.000,   1,1, 0
20221,'1 ',1,   1,   1,    10.200,     5.010,     0.000,     0.000,     0.000,     0.000,   1,1, 0
20231,'1 ',1,   1,   1,     7.140,     3.000,     0.000,     0.000,     0.000,     0.000,   1,1, 0
20271,'1 ',1,   1,   1,    63.240,     6.000,     0.000,     0.000,     0.000,     0.000,   1,1, 0
20281,'1 ',1,   1,   1,    17.340,     6.990,     0.000,     0.000,     0.000,     0.000,   1,1, 0
20291,'1 ',1,   1,   1,    24.480,     3.990,     0.000,     0.000,     0.000,     0.000,   1,1, 0
20311,'1 ',1,   1,   1,    43.860,    27.000,     0.000,     0.000,     0.000,     0.000,   1,1, 0
20321,'1 ',1,   1,   1,    60.180,    18.990,     0.000,     0.000,     0.000,     0.000,   1,1, 0
20331,'1 ',1,   1,   1,    23.460,     9.000,     0.000,     0.000,     0.000,     0.000,   1,1, 0
20341,'1 ',1,   1,   1,    60.180,    26.010,     0.000,     0.000,     0.000,     0.000,   1,1, 0
20351,'1 ',1,   1,   1,    33.660,     9.000,     0.000,     0.000,     0.000,     0.000,   1,1, 0
20361,'1 ',1,   1,   1,    31.620,    17.010,     0.000,     0.000,     0.000,     0.000,   1,1, 0
20391,'1 ',1,   1,   1,    27.540,    11.010,     0.000,     0.000,     0.000,     0.000,   1,1, 0
20401,'1 ',1,   1,   1,    20.400,    23.010,     0.000,     0.000,     0.000,     0.000,   1,1, 0
20411,'1 ',1,   1,   1,    37.740,     9.990,     0.000,     0.000,     0.000,     0.000,   1,1, 0
20421,'1 ',1,   1,   1,    37.740,    23.010,     0.000,     0.000,     0.000,     0.000,   1,1, 0
20431,'1 ',1,   1,   1,    18.360,     6.990,     0.000,     0.000,     0.000,     0.000,   1,1, 0
20441,'1 ',1,   1,   1,    16.320,     8.010,     0.000,     0.000,     0.000,     0.000,   1,1, 0
20451,'1 ',1,   1,   1,    54.060,    21.990,     0.000,     0.000,     0.000,     0.000,   1,1, 0
20461,'1 ',1,   1,   1,    28.560,     9.990,     0.000,     0.000,     0.000,     0.000,   1,1, 0
20471,'1 ',1,   1,   1,    34.680,     0.000,     0.000,     0.000,     0.000,     0.000,   1,1, 0
20481,'1 ',1,   1,   1,    20.400,    11.010,     0.000,     0.000,     0.000,     0.000,   1,1, 0
20491,'1 ',1,   1,   1,    88.740,    30.000,     0.000,     0.000,     0.000,     0.000,   1,1, 0
20501,'1 ',1,   1,   1,    17.340,     3.990,     0.000,     0.000,     0.000,     0.000,   1,1, 0
20511,'1 ',1,   1,   1,    17.340,     8.010,     0.000,     0.000,     0.000,     0.000,   1,1, 0
20521,'1 ',1,   1,   1,    18.360,     5.010,     0.000,     0.000,     0.000,     0.000,   1,1, 0
20531,'1 ',1,   1,   1,    23.460,    11.010,     0.000,     0.000,     0.000,     0.000,   1,1, 0
20541,'1 ',1,   1,   1,    57.630,    15.990,     0.000,     0.000,     0.000,     0.000,   1,1, 0
20542,'1 ',1,   1,   1,    57.630,    15.990,     0.000,     0.000,     0.000,     0.000,   1,1, 0
20551,'1 ',1,   1,   1,    64.260,    21.990,     0.000,     0.000,     0.000,     0.000,   1,1, 0
20561,'1 ',1,   1,   1,    85.680,    18.000,     0.000,     0.000,     0.000,     0.000,   1,1, 0
20571,'1 ',1,   1,   1,    12.240,     3.000,     0.000,     0.000,     0.000,     0.000,   1,1, 0
20581,'1 ',1,   1,   1,    12.240,     3.000,     0.000,     0.000,     0.000,     0.000,   1,1, 0
20591,'1 ',1,   1,   1,    94.170,    37.680,     0.000,     0.000,     0.000,     0.000,   1,1, 0
20592,'1 ',1,   1,   1,    94.170,    37.680,     0.000,     0.000,     0.000,     0.000,   1,1, 0
20593,'1 ',1,   1,   1,    94.170,    37.680,     0.000,     0.000,     0.000,     0.000,   1,1, 0
20601,'1 ',1,   1,   1,    79.560,     3.000,     0.000,     0.000,     0.000,     0.000,   1,1, 0
20621,'1 ',1,   1,   1,    78.540,    14.010,     0.000,     0.000,     0.000,     0.000,   1,1, 0
20661,'1 ',1,   1,   1,    39.780,    18.000,     0.000,     0.000,     0.000,     0.000,   1,1, 0
20671,'1 ',1,   1,   1,    28.560,     6.990,     0.000,     0.000,     0.000,     0.000,   1,1, 0
20701,'1 ',1,   1,   1,    67.320,    15.000,     0.000,     0.000,     0.000,     0.000,   1,1, 0
20741,'1 ',1,   1,   1,    69.360,    27.000,     0.000,     0.000,     0.000,     0.000,   1,1, 0
20751,'1 ',1,   1,   1,    47.940,    11.010,     0.000,     0.000,     0.000,     0.000,   1,1, 0
20761,'1 ',1,   1,   1,    69.360,    36.000,     0.000,     0.000,     0.000,     0.000,   1,1, 0
20771,'1 ',1,   1,   1,    62.220,    21.000,     0.000,     0.000,     0.000,     0.000,   1,1, 0
20781,'1 ',1,   1,   1,    72.420,    26.010,     0.000,     0.000,     0.000,     0.000,   1,1, 0
20791,'1 ',1,   1,   1,    39.780,    32.010,     0.000,     0.000,     0.000,     0.000,   1,1, 0
20801,'1 ',1,   1,   1,    66.300,    12.000,     0.000,     0.000,     0.000,     0.000,   1,1, 0
20802,'1 ',1,   1,   1,    66.300,    12.000,     0.000,     0.000,     0.000,     0.000,   1,1, 0
20821,'1 ',1,   1,   1,    55.080,    27.000,     0.000,     0.000,     0.000,     0.000,   1,1, 0
20831,'1 ',1,   1,   1,    20.400,     9.990,     0.000,     0.000,     0.000,     0.000,   1,1, 0
20841,'1 ',1,   1,   1,    11.220,     6.990,     0.000,     0.000,     0.000,     0.000,   1,1, 0
20851,'1 ',1,   1,   1,    24.480,    15.000,     0.000,     0.000,     0.000,     0.000,   1,1, 0
20861,'1 ',1,   1,   1,    21.420,     9.990,     0.000,     0.000,     0.000,     0.000,   1,1, 0
20881,'1 ',1,   1,   1,    48.960,     9.990,     0.000,     0.000,     0.000,     0.000,   1,1, 0
20901,'1 ',1,   1,   1,    79.560,    38.010,     0.000,     0.000,     0.000,     0.000,   1,1, 0
20921,'1 ',1,   1,   1,    66.300,     9.990,     0.000,     0.000,     0.000,     0.000,   1,1, 0
20931,'1 ',1,   1,   1,    12.240,     3.990,     0.000,     0.000,     0.000,     0.000,   1,1, 0
20941,'1 ',1,   1,   1,    30.600,    15.990,     0.000,     0.000,     0.000,     0.000,   1,1, 0
20951,'1 ',1,   1,   1,    42.840,    30.990,     0.000,     0.000,     0.000,     0.000,   1,1, 0
20961,'1 ',1,   1,   1,    38.760,    15.000,     0.000,     0.000,     0.000,     0.000,   1,1, 0
20971,'1 ',1,   1,   1,    15.300,     9.000,     0.000,     0.000,     0.000,     0.000,   1,1, 0
20981,'1 ',1,   1,   1,    34.680,     8.010,     0.000,     0.000,     0.000,     0.000,   1,1, 0
21001,'1 ',1,   1,   1,    37.740,    15.000,     0.000,     0.000,     0.000,     0.000,   1,1, 0
21011,'1 ',1,   1,   1,    22.440,    15.000,     0.000,     0.000,     0.000,     0.000,   1,1, 0
21021,'1 ',1,   1,   1,     5.100,     3.000,     0.000,     0.000,     0.000,     0.000,   1,1, 0
21031,'1 ',1,   1,   1,    23.460,    14.010,     0.000,     0.000,     0.000,     0.000,   1,1, 0
21041,'1 ',1,   1,   1,    38.760,    24.990,     0.000,     0.000,     0.000,     0.000,   1,1, 0
21051,'1 ',1,   1,   1,    31.620,    26.010,     0.000,     0.000,     0.000,     0.000,   1,1, 0
21061,'1 ',1,   1,   1,    43.860,    15.990,     0.000,     0.000,     0.000,     0.000,   1,1, 0
21071,'1 ',1,   1,   1,    28.560,    12.000,     0.000,     0.000,     0.000,     0.000,   1,1, 0
21081,'1 ',1,   1,   1,     2.040,     0.990,     0.000,     0.000,     0.000,     0.000,   1,1, 0
21091,'1 ',1,   1,   1,     8.160,     3.000,     0.000,     0.000,     0.000,     0.000,   1,1, 0
21101,'1 ',1,   1,   1,    39.780,    24.000,     0.000,     0.000,     0.000,     0.000,   1,1, 0
21121,'1 ',1,   1,   1,    25.500,    11.010,     0.000,     0.000,     0.000,     0.000,   1,1, 0
21141,'1 ',1,   1,   1,     8.160,     3.000,     0.000,     0.000,     0.000,     0.000,   1,1, 0
21151,'1 ',1,   1,   1,    22.440,     6.990,     0.000,     0.000,     0.000,     0.000,   1,1, 0
21171,'1 ',1,   1,   1,    20.400,     8.010,     0.000,     0.000,     0.000,     0.000,   1,1, 0
21181,'1 ',1,   1,   1,    33.660,    15.000,     0.000,     0.000,     0.000,     0.000,   1,1, 0
0 / END OF LOAD DATA, BEGIN FIXED SHUNT DATA
     5,'1 ', 1,     0.400,   -40.000
    37,'1 ', 1,     0.250,   -25.000
 20011,'1 ', 1,     0.000,    24.000
 20131,'1 ', 1,     0.000,    24.000
 20211,'1 ', 1,     0.000,    12.000
 20291,'1 ', 1,     0.000,    12.000
 20311,'1 ', 1,     0.000,    12.000
 20401,'1 ', 1,     0.000,    12.000
 20451,'1 ', 1,     0.000,    12.000
 20531,'1 ', 1,     0.000,    12.000
 20561,'1 ', 1,     0.000,    12.000
 20741,'1 ', 1,     0.000,    24.000
 20761,'1 ', 1,     0.000,    36.000
 20771,'1 ', 1,     0.000,    12.000
 20781,'1 ', 1,     0.000,    24.000
 20821,'1 ', 1,     0.000,    24.000
 20831,'1 ', 1,     0.000,    10.000
 20951,'1 ', 1,     0.000,    12.000
 21051,'1 ', 1,     0.000,    24.000
 21061,'1 ', 1,     0.000,    12.000
 21071,'1 ', 1,     0.000,    12.000
 21121,'1 ', 1,     0.000,     8.000
 21171,'1 ', 1,     0.000,     8.000
 21181,'1 ', 1,     0.000,    12.000
0 / END OF FIXED SHUNT DATA, BEGIN GENERATOR DATA
10011,'1 ',     0.000,    20.047,    48.000,   -15.000,0.99048,    0,   115.000,   0.00200,   0.17600,   0.00000,   0.00000,1.00000,1,  100.0,   115.000,     0.000,   1,1.0000,   0,1.0000,   0,1.0000,   0,1.0000,0, 1.0000
10041,'1 ',     0.000,    75.770,   100.000,  -100.000,1.05000,    0,   115.000,   0.00200,   0.17600,   0.00000,   0.00000,1.00000,1,  100.0,   115.000,     0.000,   1,1.0000,   0,1.0000,   0,1.0000,   0,1.0000,0, 1.0000
10061,'1 ',     0.000,    19.369,    50.000,   -13.000,0.99000,    0,   115.000,   0.00200,   0.17600,   0.00000,   0.00000,1.00000,1,  100.0,   115.000,     0.000,   1,1.0000,   0,1.0000,   0,1.0000,   0,1.0000,0, 1.0000
10081,'1 ',     0.000,    18.032,    35.700,   -35.700,1.01500,    0,    42.000,   0.00200,   0.17600,   0.00000,   0.00000,1.00000,1,  100.0,    42.000,     0.000,   1,1.0000,   0,1.0000,   0,1.0000,   0,1.0000,0, 1.0000
10101,'1 ',   210.800,    40.622,   100.000,   -73.500,1.05000,    0,   248.000,   0.00200,   0.17600,   0.00000,   0.00000,1.00000,1,  100.0,   248.000,     0.000,   1,1.0000,   0,1.0000,   0,1.0000,   0,1.0000,0, 1.0000
10102,'2 ',   210.800,    40.622,   100.000,   -73.500,1.05000,    0,   248.000,   0.00200,   0.17600,   0.00000,   0.00000,1.00000,1,  100.0,   248.000,     0.000,   1,1.0000,   0,1.0000,   0,1.0000,   0,1.0000,0, 1.0000
10121,'1 ',    19.975,     8.430,    12.500,    -8.750,1.00952,    0,    23.500,   0.00130,   0.11401,   0.00000,   0.00000,1.00000,1,  100.0,    23.500,     0.000,   1,1.0000,   0,1.0000,   0,1.0000,   0,1.0000,0, 1.0000
10122,'2 ',    19.975,     8.430,    12.500,    -8.750,1.00952,    0,    23.500,   0.00130,   0.11401,   0.00000,   0.00000,1.00000,1,  100.0,    23.500,     0.000,   1,1.0000,   0,1.0000,   0,1.0000,   0,1.0000,0, 1.0000
10123,'3 ',    19.975,     8.430,    12.500,    -8.750,1.00952,    0,    23.500,   0.00130,   0.11401,   0.00000,   0.00000,1.00000,1,  100.0,    23.500,     0.000,   1,1.0000,   0,1.0000,   0,1.0000,   0,1.0000,0, 1.0000
10124,'4 ',    19.975,     8.430,    12.500,    -8.750,1.00952,    0,    23.500,   0.00130,   0.11401,   0.00000,   0.00000,1.00000,1,  100.0,    23.500,     0.000,   1,1.0000,   0,1.0000,   0,1.0000,   0,1.0000,0, 1.0000
10151,'1 ',     0.000,    10.597,    30.000,   -10.000,0.98000,    0,   115.000,   0.00200,   0.17600,   0.00000,   0.00000,1.00000,1,  100.0,   115.000,     0.000,   1,1.0000,   0,1.0000,   0,1.0000,   0,1.0000,0, 1.0000
10181,'1 ',     0.000,     4.710,    50.000,   -16.000,0.97300,    0,   115.000,   0.00200,   0.17600,   0.00000,   0.00000,1.00000,1,  100.0,   115.000,     0.000,   1,1.0000,   0,1.0000,   0,1.0000,   0,1.0000,0, 1.0000
10191,'1 ',     0.000,    -0.742,    24.000,    -8.000,0.96400,    0,   115.000,   0.00200,   0.17600,   0.00000,   0.00000,1.00000,1,  100.0,   115.000,     0.000,   1,1.0000,   0,1.0000,   0,1.0000,   0,1.0000,0, 1.0000
10241,'1 ',     0.000,     2.436,    42.500,   -42.500,1.00476,    0,   470.000,   0.00200,   0.17600,   0.00000,   0.00000,1.00000,1,  100.0,    50.000,     0.000,   1,1.0000,   0,1.0000,   0,1.0000,   0,1.0000,0, 1.0000
10251,'1 ',   182.750,    34.350,   110.000,   -47.000,1.05000,    0,   215.000,   0.00130,   0.11401,   0.00000,   0.00000,1.00000,1,  100.0,   215.000,     0.000,   1,1.0000,   0,1.0000,   0,1.0000,   0,1.0000,0, 1.0000
10261,'1 ',   130.000,    21.041,    80.000,   -80.000,1.05333,    0,   153.000,   0.00130,   0.11401,   0.00000,   0.00000,1.00000,1,  100.0,   153.000,     0.000,   1,1.0000,   0,1.0000,   0,1.0000,   0,1.0000,0, 1.0000
10262,'2 ',   130.000,    21.041,    80.000,   -80.000,1.05333,    0,   153.000,   0.00130,   0.11401,   0.00000,   0.00000,1.00000,1,  100.0,   153.000,     0.000,   1,1.0000,   0,1.0000,   0,1.0000,   0,1.0000,0, 1.0000
10271,'1 ',     0.000,    27.074,   300.000,  -300.000,0.98000,    0,   440.000,   0.00200,   0.17600,   0.00000,   0.00000,1.00000,1,  100.0,   440.000,     0.000,   1,1.0000,   0,1.0000,   0,1.0000,   0,1.0000,0, 1.0000
10311,'1 ',     7.000,     1.168,     4.000,    -4.000,0.98095,    0,     8.000,   0.00200,   0.17600,   0.00000,   0.00000,1.00000,1,  100.0,     8.000,     0.000,   1,1.0000,   0,1.0000,   0,1.0000,   0,1.0000,0, 1.0000
10321,'1 ',     0.000,     8.944,    42.000,   -14.000,0.97143,    0,   115.000,   0.00200,   0.17600,   0.00000,   0.00000,1.00000,1,  100.0,   115.000,     0.000,   1,1.0000,   0,1.0000,   0,1.0000,   0,1.0000,0, 1.0000
10341,'1 ',     0.000,    15.199,    24.000,    -8.000,1.00476,    0,   115.000,   0.00200,   0.17600,   0.00000,   0.00000,1.00000,1,  100.0,   115.000,     0.000,   1,1.0000,   0,1.0000,   0,1.0000,   0,1.0000,0, 1.0000
10361,'1 ',     0.000,    12.152,    24.000,    -8.000,1.00000,    0,   115.000,   0.00200,   0.17600,   0.00000,   0.00000,1.00000,1,  100.0,   115.000,     0.000,   1,1.0000,   0,1.0000,   0,1.0000,   0,1.0000,0, 1.0000
10401,'1 ',     0.000,    10.348,   100.000,  -100.000,0.99048,    0,   115.000,   0.00200,   0.17600,   0.00000,   0.00000,1.00000,1,  100.0,   115.000,     0.000,   1,1.0000,   0,1.0000,   0,1.0000,   0,1.0000,0, 1.0000
10421,'1 ',     0.000,    14.573,    29.750,   -29.750,1.00952,    0,    35.000,   0.00200,   0.17600,   0.00000,   0.00000,1.00000,1,  100.0,    35.000,     0.000,   1,1.0000,   0,1.0000,   0,1.0000,   0,1.0000,0, 1.0000
10461,'1 ',     9.250,    -0.891,     6.000,    -4.000,1.01333,    0,    10.900,   0.00130,   0.11401,   0.00000,   0.00000,1.00000,1,  100.0,    10.900,     0.000,   1,1.0000,   0,1.0000,   0,1.0000,   0,1.0000,0, 1.0000
10462,'2 ',     9.250,    -0.891,     6.000,    -4.000,1.01333,    0,    10.900,   0.00130,   0.11401,   0.00000,   0.00000,1.00000,1,  100.0,    10.900,     0.000,   1,1.0000,   0,1.0000,   0,1.0000,   0,1.0000,0, 1.0000
10491,'1 ',   106.500,    84.640,    90.000,   -45.000,1.04667,    0,   150.000,   0.00130,   0.11401,   0.00000,   0.00000,1.00000,1,  100.0,   125.000,     0.000,   1,1.0000,   0,1.0000,   0,1.0000,   0,1.0000,0, 1.0000
10541,'1 ',    34.000,    11.086,    20.000,   -20.000,1.00000,    0,    40.000,   0.00130,   0.11401,   0.00000,   0.00000,1.00000,1,  100.0,    40.000,     0.000,   1,1.0000,   0,1.0000,   0,1.0000,   0,1.0000,0, 1.0000
10542,'2 ',    34.000,    11.086,    20.000,   -20.000,1.00000,    0,    40.000,   0.00130,   0.11401,   0.00000,   0.00000,1.00000,1,  100.0,    40.000,     0.000,   1,1.0000,   0,1.0000,   0,1.0000,   0,1.0000,0, 1.0000
10543,'3 ',    35.000,    11.122,    20.000,   -20.000,1.00000,    0,    40.000,   0.00130,   0.11401,   0.00000,   0.00000,1.00000,1,  100.0,    40.000,     0.000,   1,1.0000,   0,1.0000,   0,1.0000,   0,1.0000,0, 1.0000
10551,'1 ',     0.000,     1.629,    23.000,    -8.000,0.97143,    0,   115.000,   0.00200,   0.17600,   0.00000,   0.00000,1.00000,1,  100.0,   115.000,     0.000,   1,1.0000,   0,1.0000,   0,1.0000,   0,1.0000,0, 1.0000
10561,'1 ',     0.000,     7.064,    15.000,    -8.000,1.00952,    0,    20.000,   0.00200,   0.17600,   0.00000,   0.00000,1.00000,1,  100.0,    20.000,     0.000,   1,1.0000,   0,1.0000,   0,1.0000,   0,1.0000,0, 1.0000
10591,'1 ',    95.000,    46.294,    65.000,   -30.000,1.03333,    0,   111.000,   0.00200,   0.17600,   0.00000,   0.00000,1.00000,1,  100.0,   111.000,     0.000,   1,1.0000,   0,1.0000,   0,1.0000,   0,1.0000,0, 1.0000
10592,'2 ',    95.000,    46.294,    65.000,   -30.000,1.03333,    0,   115.000,   0.00200,   0.17600,   0.00000,   0.00000,1.00000,1,  100.0,   115.000,     0.000,   1,1.0000,   0,1.0000,   0,1.0000,   0,1.0000,0, 1.0000
10611,'1 ',   200.000,    61.342,   130.000,  -100.000,1.04667,    0,   238.000,   0.00200,   0.17600,   0.00000,   0.00000,1.00000,1,  100.0,   238.000,     0.000,   1,1.0000,   0,1.0000,   0,1.0000,   0,1.0000,0, 1.0000
10621,'1 ',     0.000,    19.684,    50.000,   -50.000,1.02857,    0,   115.000,   0.00200,   0.17600,   0.00000,   0.00000,1.00000,1,  100.0,   115.000,     0.000,   1,1.0000,   0,1.0000,   0,1.0000,   0,1.0000,0, 1.0000
10651,'1 ',   187.000,    43.363,   100.000,   -33.500,1.04500,    0,   220.000,   0.00153,   0.13501,   0.00000,   0.00000,1.00000,1,  100.0,   220.000,     0.000,   1,1.0000,   0,1.0000,   0,1.0000,   0,1.0000,0, 1.0000
10652,'2 ',   187.000,    43.363,   100.000,   -33.500,1.04500,    0,   220.000,   0.00153,   0.13501,   0.00000,   0.00000,1.00000,1,  100.0,   220.000,     0.000,   1,1.0000,   0,1.0000,   0,1.0000,   0,1.0000,0, 1.0000
10664,'1 ',   196.000,    42.273,   100.000,   -33.500,1.02500,    0,   238.000,   0.00153,   0.13501,   0.00000,   0.00000,1.00000,1,  100.0,   238.000,     0.000,   1,1.0000,   0,1.0000,   0,1.0000,   0,1.0000,0, 1.0000
10665,'2 ',   196.000,    42.273,   100.000,   -33.500,1.02500,    0,   238.000,   0.00153,   0.13501,   0.00000,   0.00000,1.00000,1,  100.0,   238.000,     0.000,   1,1.0000,   0,1.0000,   0,1.0000,   0,1.0000,0, 1.0000
10691,'1 ',    75.153,     5.568,   150.000,  -150.000,1.05000,    0,   153.000,   0.00200,   0.17600,   0.00000,   0.00000,1.00000,1,  100.0,   153.000,     0.000,   1,1.0000,   0,1.0000,   0,1.0000,   0,1.0000,0, 1.0000
10701,'1 ',     0.000,    -0.998,    32.000,   -10.000,0.98400,    0,   115.000,   0.00200,   0.17600,   0.00000,   0.00000,1.00000,1,  100.0,   115.000,     0.000,   1,1.0000,   0,1.0000,   0,1.0000,   0,1.0000,0, 1.0000
10721,'1 ',     0.000,    -1.086,   100.000,  -100.000,1.00190,    0,   110.000,   0.00200,   0.17600,   0.00000,   0.00000,1.00000,1,  100.0,   110.000,     0.000,   1,1.0000,   0,1.0000,   0,1.0000,   0,1.0000,0, 1.0000
10731,'1 ',     0.000,    -2.230,   100.000,  -100.000,0.99100,    0,   115.000,   0.00200,   0.17600,   0.00000,   0.00000,1.00000,1,  100.0,   115.000,     0.000,   1,1.0000,   0,1.0000,   0,1.0000,   0,1.0000,0, 1.0000
10741,'1 ',     0.000,    -6.000,     9.000,    -6.000,0.96000,    0,   115.000,   0.00200,   0.17600,   0.00000,   0.00000,1.00000,1,  100.0,   115.000,     0.000,   1,1.0000,   0,1.0000,   0,1.0000,   0,1.0000,0, 1.0000
10761,'1 ',     0.000,    14.430,    50.000,   -50.000,1.00000,    0,   115.000,   0.00200,   0.17600,   0.00000,   0.00000,1.00000,1,  100.0,   115.000,     0.000,   1,1.0000,   0,1.0000,   0,1.0000,   0,1.0000,0, 1.0000
10771,'1 ',     0.000,    52.184,    70.000,   -20.000,1.04762,    0,   115.000,   0.00200,   0.17600,   0.00000,   0.00000,1.00000,1,  100.0,   115.000,     0.000,   1,1.0000,   0,1.0000,   0,1.0000,   0,1.0000,0, 1.0000
10801,'1 ',   137.700,    46.409,   140.000,   -82.500,1.04000,    0,   162.000,   0.00200,   0.17600,   0.00000,   0.00000,1.00000,1,  100.0,   162.000,     0.000,   1,1.0000,   0,1.0000,   0,1.0000,   0,1.0000,0, 1.0000
10802,'2 ',   137.700,    46.409,   140.000,   -82.500,1.04000,    0,   162.000,   0.00200,   0.17600,   0.00000,   0.00000,1.00000,1,  100.0,   162.000,     0.000,   1,1.0000,   0,1.0000,   0,1.0000,   0,1.0000,0, 1.0000
10851,'1 ',     0.000,     2.249,    23.000,    -8.000,0.98190,    0,   115.000,   0.00200,   0.11401,   0.00000,   0.00000,1.00000,1,  100.0,   115.000,     0.000,   1,1.0000,   0,1.0000,   0,1.0000,   0,1.0000,0, 1.0000
10871,'1 ',    10.000,     0.647,     7.500,    -5.000,0.99000,    0,    12.500,   0.00130,   0.11573,   0.00000,   0.00000,1.00000,1,  100.0,    12.500,     0.000,   1,1.0000,   0,1.0000,   0,1.0000,   0,1.0000,0, 1.0000
10891,'1 ',   202.000,    64.044,   100.000,   -70.000,1.05000,    0,   238.000,   0.00132,   0.11573,   0.00000,   0.00000,1.00000,1,  100.0,   238.000,     0.000,   1,1.0000,   0,1.0000,   0,1.0000,   0,1.0000,0, 1.0000
10892,'2 ',   202.000,    64.044,   100.000,   -70.000,1.05000,    0,   238.000,   0.00132,   0.11573,   0.00000,   0.00000,1.00000,1,  100.0,   238.000,     0.000,   1,1.0000,   0,1.0000,   0,1.0000,   0,1.0000,0, 1.0000
10893,'3 ',   202.000,    64.044,   100.000,   -70.000,1.05000,    0,   238.000,   0.00132,   0.17600,   0.00000,   0.00000,1.00000,1,  100.0,   238.000,     0.000,   1,1.0000,   0,1.0000,   0,1.0000,   0,1.0000,0, 1.0000
10901,'1 ',     0.000,     5.531,    32.725,   -32.725,1.01905,    0,    38.500,   0.00200,   0.17600,   0.00000,   0.00000,1.00000,1,  100.0,    38.500,     0.000,   1,1.0000,   0,1.0000,   0,1.0000,   0,1.0000,0, 1.0000
10911,'1 ',     0.000,     1.160,    29.750,   -29.750,1.01429,    0,    35.000,   0.00200,   0.17600,   0.00000,   0.00000,1.00000,1,  100.0,    35.000,     0.000,   1,1.0000,   0,1.0000,   0,1.0000,   0,1.0000,0, 1.0000
10921,'1 ',     0.000,     0.084,    21.000,    -3.000,1.00571,    0,   115.000,   0.00200,   0.17600,   0.00000,   0.00000,1.00000,1,  100.0,   115.000,     0.000,   1,1.0000,   0,1.0000,   0,1.0000,   0,1.0000,0, 1.0000
10991,'1 ',     0.000,     7.781,   100.000,  -100.000,1.01000,    0,   115.000,   0.00200,   0.17600,   0.00000,   0.00000,1.00000,1,  100.0,   115.000,     0.000,   1,1.0000,   0,1.0000,   0,1.0000,   0,1.0000,0, 1.0000
11001,'1 ',    85.000,    27.920,    50.000,   -25.000,1.01700,    0,   100.000,   0.00200,   0.17600,   0.00000,   0.00000,1.00000,1,  100.0,   100.000,     0.000,   1,1.0000,   0,1.0000,   0,1.0000,   0,1.0000,0, 1.0000
11002,'2 ',   200.000,    67.391,   130.000,   -90.000,1.01700,    0,   238.000,   0.00200,   0.17600,   0.00000,   0.00000,1.00000,1,  100.0,   238.000,     0.000,   1,1.0000,   0,1.0000,   0,1.0000,   0,1.0000,0, 1.0000
11031,'1 ',    60.000,    15.404,    40.000,   -15.000,1.00000,    0,    75.000,   0.00200,   0.17600,   0.00000,   0.00000,1.00000,1,  100.0,    75.000,     0.000,   1,1.0000,   0,1.0000,   0,1.0000,   0,1.0000,0, 1.0000
11041,'1 ',     0.000,     2.885,    23.000,    -8.000,0.97100,    0,   115.000,   0.00200,   0.17600,   0.00000,   0.00000,1.00000,1,  100.0,   115.000,     0.000,   1,1.0000,   0,1.0000,   0,1.0000,   0,1.0000,0, 1.0000
11051,'1 ',     0.000,    -4.592,    23.000,    -8.000,0.97048,    0,   115.000,   0.00200,   0.17600,   0.00000,   0.00000,1.00000,1,  100.0,   115.000,     0.000,   1,1.0000,   0,1.0000,   0,1.0000,   0,1.0000,0, 1.0000
11071,'1 ',     0.000,     0.426,    10.625,   -10.625,0.98095,    0,    12.500,   0.00200,   0.17600,   0.00000,   0.00000,1.00000,1,  100.0,    12.500,     0.000,   1,1.0000,   0,1.0000,   0,1.0000,   0,1.0000,0, 1.0000
11101,'1 ',     0.000,     4.489,    23.000,    -8.000,0.97300,    0,   115.000,   0.00200,   0.11401,   0.00000,   0.00000,1.00000,1,  100.0,   115.000,     0.000,   1,1.0000,   0,1.0000,   0,1.0000,   0,1.0000,0, 1.0000
11111,'1 ',    57.000,    21.131,    35.000,   -30.000,1.02000,    0,    67.000,   0.00130,   0.17600,   0.00000,   0.00000,1.00000,1,  100.0,    67.000,     0.000,   1,1.0000,   0,1.0000,   0,1.0000,   0,1.0000,0, 1.0000
11121,'1 ',     0.000,     1.840,     8.500,    -8.500,0.98095,    0,    10.000,   0.00200,   0.17600,   0.00000,   0.00000,1.00000,1,  100.0,    10.000,     0.000,   1,1.0000,   0,1.0000,   0,1.0000,   0,1.0000,0, 1.0000
11131,'1 ',     0.000,     1.798,     5.000,    -5.000,1.00952,    0,     6.000,   0.00200,   0.17600,   0.00000,   0.00000,1.00000,1,  100.0,     6.000,     0.000,   1,1.0000,   0,1.0000,   0,1.0000,   0,1.0000,0, 1.0000
11161,'1 ',   184.000,     9.583,   184.450,  -184.450,1.00500,    0,   217.000,   0.00200,   0.17600,   0.00000,   0.00000,1.00000,1,  100.0,   217.000,     0.000,   1,1.0000,   0,1.0000,   0,1.0000,   0,1.0000,0, 1.0000
0 / END OF GENERATOR DATA, BEGIN BRANCH DATA
     1,     2,'1 ',1.24999E-2,1.04871E-1,2.51400E-2,   0.00,   0.00,   0.00,  0.00000,  0.00000,  0.00000,  0.00000,1,1,  41.60,   1,1.0000,   0,1.0000,   0,1.0000,   0,1.0000
     1,     3,'1 ',5.30909E-3,4.45257E-2,1.06700E-2,   0.00,   0.00,   0.00,  0.00000,  0.00000,  0.00000,  0.00000,1,1,  17.66,   1,1.0000,   0,1.0000,   0,1.0000,   0,1.0000
     2,    12,'1 ',9.34678E-3,7.85549E-2,1.88300E-2,   0.00,   0.00,   0.00,  0.00000,  0.00000,  0.00000,  0.00000,1,1,  25.65,   1,1.0000,   0,1.0000,   0,1.0000,   0,1.0000
     3,     5,'1 ',1.35103E-2,1.13357E-1,2.71800E-2,   0.00,   0.00,   0.00,  0.00000,  0.00000,  0.00000,  0.00000,1,1,  44.97,   1,1.0000,   0,1.0000,   0,1.0000,   0,1.0000
     3,    12,'1 ',1.99918E-2,1.67843E-1,4.02800E-2,   0.00,   0.00,   0.00,  0.00000,  0.00000,  0.00000,  0.00000,1,1,  66.58,   1,1.0000,   0,1.0000,   0,1.0000,   0,1.0000
     4,     5,'1 ',1.94287E-3,1.63306E-2,3.91000E-3,   0.00,   0.00,   0.00,  0.00000,  0.00000,  0.00000,  0.00000,1,1,   3.33,   1,1.0000,   0,1.0000,   0,1.0000,   0,1.0000
     4,    11,'1 ',1.00820E-2,8.45940E-2,2.02800E-2,   0.00,   0.00,   0.00,  0.00000,  0.00000,  0.00000,  0.00000,1,1,  28.65,   1,1.0000,   0,1.0000,   0,1.0000,   0,1.0000
     5,     6,'1 ',6.76038E-3,5.67000E-2,1.35900E-2,   0.00,   0.00,   0.00,  0.00000,  0.00000,  0.00000,  0.00000,1,1,  22.49,   1,1.0000,   0,1.0000,   0,1.0000,   0,1.0000
     5,    11,'1 ',1.00819E-2,8.45936E-2,2.02800E-2,   0.00,   0.00,   0.00,  0.00000,  0.00000,  0.00000,  0.00000,1,1,  28.65,   1,1.0000,   0,1.0000,   0,1.0000,   0,1.0000
     6,     7,'1 ',2.60436E-3,2.18406E-2,5.23000E-3,   0.00,   0.00,   0.00,  0.00000,  0.00000,  0.00000,  0.00000,1,1,   8.66,   1,1.0000,   0,1.0000,   0,1.0000,   0,1.0000
     7,    12,'1 ',9.45180E-3,7.91325E-2,1.89700E-2,   0.00,   0.00,   0.00,  0.00000,  0.00000,  0.00000,  0.00000,1,1,  14.17,   1,1.0000,   0,1.0000,   0,1.0000,   0,1.0000
     8,     9,'1 ',4.55367E-3,5.27452E-2,5.73450E-1,   0.00,   0.00,   0.00,  0.00000,  0.00000,  0.00000,  0.00000,1,1, 126.40,   1,1.0000,   0,1.0000,   0,1.0000,   0,1.0000
     8,    30,'1 ',5.52321E-3,6.40989E-2,6.99440E-1,   0.00,   0.00,   0.00,  0.00000,  0.00000,  0.00000,  0.00000,1,1, 207.88,   1,1.0000,   0,1.0000,   0,1.0000,   0,1.0000
     9,    10,'1 ',5.57026E-3,6.46167E-2,7.05180E-1,   0.00,   0.00,   0.00,  0.00000,  0.00000,  0.00000,  0.00000,1,1, 133.40,   1,1.0000,   0,1.0000,   0,1.0000,   0,1.0000
    11,    12,'1 ',4.20080E-3,3.50767E-2,8.40000E-3,   0.00,   0.00,   0.00,  0.00000,  0.00000,  0.00000,  0.00000,1,1,   8.16,   1,1.0000,   0,1.0000,   0,1.0000,   0,1.0000
    11,    13,'1 ',1.11321E-2,9.34677E-2,2.24100E-2,   0.00,   0.00,   0.00,  0.00000,  0.00000,  0.00000,  0.00000,1,1,  30.45,   1,1.0000,   0,1.0000,   0,1.0000,   0,1.0000
    12,    14,'1 ',1.05020E-2,8.81117E-2,2.11200E-2,   0.00,   0.00,   0.00,  0.00000,  0.00000,  0.00000,  0.00000,1,1,  29.44,   1,1.0000,   0,1.0000,   0,1.0000,   0,1.0000
    12,    16,'1 ',2.93006E-2,2.46429E-1,5.92500E-2,   0.00,   0.00,   0.00,  0.00000,  0.00000,  0.00000,  0.00000,1,1,  34.73,   1,1.0000,   0,1.0000,   0,1.0000,   0,1.0000
    12,   117,'1 ',7.35140E-4,6.09116E-3,1.46000E-3,   0.00,   0.00,   0.00,  0.00000,  0.00000,  0.00000,  0.00000,1,1,  58.26,   1,1.0000,   0,1.0000,   0,1.0000,   0,1.0000
    13,    15,'1 ',3.04455E-2,2.56000E-1,6.15800E-2,   0.00,   0.00,   0.00,  0.00000,  0.00000,  0.00000,  0.00000,1,1, 101.55,   1,1.0000,   0,1.0000,   0,1.0000,   0,1.0000
    14,    15,'1 ',2.63600E-2,2.21592E-1,5.32500E-2,   0.00,   0.00,   0.00,  0.00000,  0.00000,  0.00000,  0.00000,1,1,  81.09,   1,1.0000,   0,1.0000,   0,1.0000,   0,1.0000
    15,    17,'1 ',8.71666E-3,7.29364E-2,1.74800E-2,   0.00,   0.00,   0.00,  0.00000,  0.00000,  0.00000,  0.00000,1,1,  18.20,   1,1.0000,   0,1.0000,   0,1.0000,   0,1.0000
    15,    19,'1 ',1.10849E-2,9.29427E-2,2.22800E-2,   0.00,   0.00,   0.00,  0.00000,  0.00000,  0.00000,  0.00000,1,1,  16.41,   1,1.0000,   0,1.0000,   0,1.0000,   0,1.0000
    15,    33,'1 ',1.55582E-2,1.30561E-1,3.13100E-2,   0.00,   0.00,   0.00,  0.00000,  0.00000,  0.00000,  0.00000,1,1,  51.79,   1,1.0000,   0,1.0000,   0,1.0000,   0,1.0000
    16,    17,'1 ',5.51355E-3,4.62613E-2,1.10900E-2,   0.00,   0.00,   0.00,  0.00000,  0.00000,  0.00000,  0.00000,1,1,  74.92,   1,1.0000,   0,1.0000,   0,1.0000,   0,1.0000
    17,    18,'1 ',6.32220E-3,5.30193E-2,1.27100E-2,   0.00,   0.00,   0.00,  0.00000,  0.00000,  0.00000,  0.00000,1,1,  21.03,   1,1.0000,   0,1.0000,   0,1.0000,   0,1.0000
    17,    31,'1 ',1.95285E-2,1.63962E-1,3.93500E-2,   0.00,   0.00,   0.00,  0.00000,  0.00000,  0.00000,  0.00000,1,1,  65.04,   1,1.0000,   0,1.0000,   0,1.0000,   0,1.0000
    17,   113,'1 ',1.70132E-2,1.42880E-1,3.42800E-2,   0.00,   0.00,   0.00,  0.00000,  0.00000,  0.00000,  0.00000,1,1,  12.54,   1,1.0000,   0,1.0000,   0,1.0000,   0,1.0000
    18,    19,'1 ',1.04495E-2,8.76391E-2,2.10100E-2,   0.00,   0.00,   0.00,  0.00000,  0.00000,  0.00000,  0.00000,1,1,  20.54,   1,1.0000,   0,1.0000,   0,1.0000,   0,1.0000
    19,    20,'1 ',1.46336E-2,1.22793E-1,2.94500E-2,   0.00,   0.00,   0.00,  0.00000,  0.00000,  0.00000,  0.00000,1,1,  48.71,   1,1.0000,   0,1.0000,   0,1.0000,   0,1.0000
    19,    34,'1 ',1.84835E-2,1.55114E-1,3.72100E-2,   0.00,   0.00,   0.00,  0.00000,  0.00000,  0.00000,  0.00000,1,1, 102.62,   1,1.0000,   0,1.0000,   0,1.0000,   0,1.0000
    20,    21,'1 ',1.06259E-2,8.91362E-2,2.13700E-2,   0.00,   0.00,   0.00,  0.00000,  0.00000,  0.00000,  0.00000,1,1,  35.36,   1,1.0000,   0,1.0000,   0,1.0000,   0,1.0000
    21,    22,'1 ',1.21377E-2,1.01830E-1,2.44100E-2,   0.00,   0.00,   0.00,  0.00000,  0.00000,  0.00000,  0.00000,1,1,  40.39,   1,1.0000,   0,1.0000,   0,1.0000,   0,1.0000
    22,    23,'1 ',2.31044E-2,1.94077E-1,4.66100E-2,   0.00,   0.00,   0.00,  0.00000,  0.00000,  0.00000,  0.00000,1,1,  66.16,   1,1.0000,   0,1.0000,   0,1.0000,   0,1.0000
    23,    24,'1 ',1.09746E-2,9.22600E-2,2.21200E-2,   0.00,   0.00,   0.00,  0.00000,  0.00000,  0.00000,  0.00000,1,1,  20.50,   1,1.0000,   0,1.0000,   0,1.0000,   0,1.0000
    23,    25,'1 ',1.79584E-2,1.50704E-1,3.61600E-2,   0.00,   0.00,   0.00,  0.00000,  0.00000,  0.00000,  0.00000,1,1,  33.31,   1,1.0000,   0,1.0000,   0,1.0000,   0,1.0000
    23,    32,'1 ',4.10628E-2,3.46251E-1,8.35700E-2,   0.00,   0.00,   0.00,  0.00000,  0.00000,  0.00000,  0.00000,1,1,  48.01,   1,1.0000,   0,1.0000,   0,1.0000,   0,1.0000
    24,    70,'1 ',5.80760E-2,4.91808E-1,1.19580E-1,   0.00,   0.00,   0.00,  0.00000,  0.00000,  0.00000,  0.00000,1,1, 170.16,   1,1.0000,   0,1.0000,   0,1.0000,   0,1.0000
    24,    72,'1 ',2.96156E-2,2.48792E-1,5.98300E-2,   0.00,   0.00,   0.00,  0.00000,  0.00000,  0.00000,  0.00000,1,1,  81.51,   1,1.0000,   0,1.0000,   0,1.0000,   0,1.0000
    25,    27,'1 ',4.26381E-2,3.59588E-1,8.68300E-2,   0.00,   0.00,   0.00,  0.00000,  0.00000,  0.00000,  0.00000,1,1,  67.82,   1,1.0000,   0,1.0000,   0,1.0000,   0,1.0000
    26,    30,'1 ',9.56102E-3,1.10135E-1,1.18913E0,   0.00,   0.00,   0.00,  0.00000,  0.00000,  0.00000,  0.00000,1,1, 349.67,   1,1.0000,   0,1.0000,   0,1.0000,   0,1.0000
    27,    28,'1 ',1.07014E-2,8.97712E-2,2.15200E-2,   0.00,   0.00,   0.00,  0.00000,  0.00000,  0.00000,  0.00000,1,1,  35.61,   1,1.0000,   0,1.0000,   0,1.0000,   0,1.0000
    27,    32,'1 ',2.61500E-2,2.19807E-1,5.28200E-2,   0.00,   0.00,   0.00,  0.00000,  0.00000,  0.00000,  0.00000,1,1,  31.44,   1,1.0000,   0,1.0000,   0,1.0000,   0,1.0000
    27,   115,'1 ',3.02457E-2,2.54516E-1,6.12200E-2,   0.00,   0.00,   0.00,  0.00000,  0.00000,  0.00000,  0.00000,1,1,  30.86,   1,1.0000,   0,1.0000,   0,1.0000,   0,1.0000
    28,    29,'1 ',1.18008E-2,9.90008E-2,2.37300E-2,   0.00,   0.00,   0.00,  0.00000,  0.00000,  0.00000,  0.00000,1,1,  39.27,   1,1.0000,   0,1.0000,   0,1.0000,   0,1.0000
    29,    31,'1 ',4.14463E-3,3.47586E-2,8.33000E-3,   0.00,   0.00,   0.00,  0.00000,  0.00000,  0.00000,  0.00000,1,1,  13.79,   1,1.0000,   0,1.0000,   0,1.0000,   0,1.0000
    30,    38,'1 ',5.90431E-3,6.85994E-2,7.49790E-1,   0.00,   0.00,   0.00,  0.00000,  0.00000,  0.00000,  0.00000,1,1, 222.48,   1,1.0000,   0,1.0000,   0,1.0000,   0,1.0000
    31,    32,'1 ',1.23241E-2,1.03392E-1,2.48000E-2,   0.00,   0.00,   0.00,  0.00000,  0.00000,  0.00000,  0.00000,1,1,  41.01,   1,1.0000,   0,1.0000,   0,1.0000,   0,1.0000
    32,   113,'1 ',2.53271E-2,2.12787E-1,5.11200E-2,   0.00,   0.00,   0.00,  0.00000,  0.00000,  0.00000,  0.00000,1,1,  84.41,   1,1.0000,   0,1.0000,   0,1.0000,   0,1.0000
    32,   114,'1 ',3.15060E-3,2.64650E-2,6.34000E-3,   0.00,   0.00,   0.00,  0.00000,  0.00000,  0.00000,  0.00000,1,1,  25.49,   1,1.0000,   0,1.0000,   0,1.0000,   0,1.0000
    33,    37,'1 ',1.77515E-2,1.48997E-1,3.57500E-2,   0.00,   0.00,   0.00,  0.00000,  0.00000,  0.00000,  0.00000,1,1,  59.10,   1,1.0000,   0,1.0000,   0,1.0000,   0,1.0000
    34,    36,'1 ',3.35539E-3,2.81411E-2,6.74000E-3,   0.00,   0.00,   0.00,  0.00000,  0.00000,  0.00000,  0.00000,1,1,  11.16,   1,1.0000,   0,1.0000,   0,1.0000,   0,1.0000
    34,    37,'1 ',1.57530E-3,1.30225E-2,3.13000E-3,   0.00,   0.00,   0.00,  0.00000,  0.00000,  0.00000,  0.00000,1,1,   3.92,   1,1.0000,   0,1.0000,   0,1.0000,   0,1.0000
    34,    43,'1 ',9.45180E-3,7.90800E-2,1.89600E-2,   0.00,   0.00,   0.00,  0.00000,  0.00000,  0.00000,  0.00000,1,1,  69.94,   1,1.0000,   0,1.0000,   0,1.0000,   0,1.0000
    35,    36,'1 ',1.27862E-3,1.07220E-2,2.57000E-3,   0.00,   0.00,   0.00,  0.00000,  0.00000,  0.00000,  0.00000,1,1,   4.25,   1,1.0000,   0,1.0000,   0,1.0000,   0,1.0000
    35,    37,'1 ',6.22086E-3,5.21744E-2,1.25000E-2,   0.00,   0.00,   0.00,  0.00000,  0.00000,  0.00000,  0.00000,1,1,  20.70,   1,1.0000,   0,1.0000,   0,1.0000,   0,1.0000
    37,    39,'1 ',1.32619E-2,1.11269E-1,2.66800E-2,   0.00,   0.00,   0.00,  0.00000,  0.00000,  0.00000,  0.00000,1,1,  44.14,   1,1.0000,   0,1.0000,   0,1.0000,   0,1.0000
    37,    40,'1 ',4.56837E-2,3.85423E-1,9.31800E-2,   0.00,   0.00,   0.00,  0.00000,  0.00000,  0.00000,  0.00000,1,1,  69.90,   1,1.0000,   0,1.0000,   0,1.0000,   0,1.0000
    38,    65,'1 ',1.03475E-2,1.22768E-1,1.38307E0,   0.00,   0.00,   0.00,  0.00000,  0.00000,  0.00000,  0.00000,1,1, 398.16,   1,1.0000,   0,1.0000,   0,1.0000,   0,1.0000
    39,    40,'1 ',4.31107E-2,3.63422E-1,8.77600E-2,   0.00,   0.00,   0.00,  0.00000,  0.00000,  0.00000,  0.00000,1,1,  25.20,   1,1.0000,   0,1.0000,   0,1.0000,   0,1.0000
    40,    41,'1 ',2.70426E-2,2.27316E-1,5.46300E-2,   0.00,   0.00,   0.00,  0.00000,  0.00000,  0.00000,  0.00000,1,1,  20.29,   1,1.0000,   0,1.0000,   0,1.0000,   0,1.0000
    40,    42,'1 ',2.28487E-2,1.91895E-1,4.60800E-2,   0.00,   0.00,   0.00,  0.00000,  0.00000,  0.00000,  0.00000,1,1,  76.12,   1,1.0000,   0,1.0000,   0,1.0000,   0,1.0000
    41,    42,'1 ',1.68783E-2,1.41656E-1,3.39800E-2,   0.00,   0.00,   0.00,  0.00000,  0.00000,  0.00000,  0.00000,1,1,  56.19,   1,1.0000,   0,1.0000,   0,1.0000,   0,1.0000
    42,    49,'1 ',4.00756E-2,3.37650E-1,8.14600E-2,   0.00,   0.00,   0.00,  0.00000,  0.00000,  0.00000,  0.00000,1,1, 133.93,   1,1.0000,   0,1.0000,   0,1.0000,   0,1.0000
    42,    49,'2 ',4.00756E-2,3.37650E-1,8.14600E-2,   0.00,   0.00,   0.00,  0.00000,  0.00000,  0.00000,  0.00000,1,1, 133.93,   1,1.0000,   0,1.0000,   0,1.0000,   0,1.0000
    43,    44,'1 ',3.05666E-2,2.57024E-1,6.18300E-2,   0.00,   0.00,   0.00,  0.00000,  0.00000,  0.00000,  0.00000,1,1, 101.95,   1,1.0000,   0,1.0000,   0,1.0000,   0,1.0000
    44,    45,'1 ',1.12749E-2,9.45846E-2,2.26700E-2,   0.00,   0.00,   0.00,  0.00000,  0.00000,  0.00000,  0.00000,1,1,  37.52,   1,1.0000,   0,1.0000,   0,1.0000,   0,1.0000
    45,    46,'1 ',1.69534E-2,1.42290E-1,3.41300E-2,   0.00,   0.00,   0.00,  0.00000,  0.00000,  0.00000,  0.00000,1,1,  56.44,   1,1.0000,   0,1.0000,   0,1.0000,   0,1.0000
    45,    49,'1 ',2.32210E-2,1.95031E-1,4.68400E-2,   0.00,   0.00,   0.00,  0.00000,  0.00000,  0.00000,  0.00000,1,1,  77.36,   1,1.0000,   0,1.0000,   0,1.0000,   0,1.0000
    46,    47,'1 ',1.58822E-2,1.33282E-1,3.19700E-2,   0.00,   0.00,   0.00,  0.00000,  0.00000,  0.00000,  0.00000,1,1,  52.87,   1,1.0000,   0,1.0000,   0,1.0000,   0,1.0000
    46,    48,'1 ',2.35927E-2,1.98167E-1,4.75900E-2,   0.00,   0.00,   0.00,  0.00000,  0.00000,  0.00000,  0.00000,1,1,  78.61,   1,1.0000,   0,1.0000,   0,1.0000,   0,1.0000
...